Version 4
SHEET 1 1268 680
WIRE -240 -240 -336 -240
WIRE 992 -224 560 -224
WIRE 1120 -224 992 -224
WIRE 1120 -208 1120 -224
WIRE -336 -176 -336 -240
WIRE -240 -160 -240 -240
WIRE 560 -160 560 -224
WIRE 560 -160 -64 -160
WIRE 624 -128 464 -128
WIRE 720 -128 624 -128
WIRE 992 -112 992 -160
WIRE 1120 -112 1120 -128
WIRE 1120 -112 992 -112
WIRE -32 -96 -64 -96
WIRE 624 -96 624 -128
WIRE 720 -96 720 -128
WIRE -336 -80 -336 -96
WIRE -240 -80 -240 -96
WIRE -240 -80 -336 -80
WIRE -336 -64 -336 -80
WIRE 1120 -64 1120 -112
WIRE 560 32 560 -160
WIRE 464 48 464 -128
WIRE 496 48 464 48
WIRE 528 48 496 48
WIRE 624 64 624 -32
WIRE 624 64 592 64
WIRE 720 64 720 -16
WIRE 720 64 624 64
WIRE 784 64 720 64
WIRE 944 64 864 64
WIRE 976 64 944 64
WIRE -128 80 -224 80
WIRE -32 80 -32 -96
WIRE -32 80 -64 80
WIRE 16 80 -32 80
WIRE 144 80 96 80
WIRE 304 80 144 80
WIRE 528 80 304 80
WIRE -224 112 -224 80
WIRE 464 112 464 48
WIRE 944 112 944 64
WIRE 144 144 144 80
WIRE -224 224 -224 192
WIRE -64 224 -224 224
WIRE 144 224 144 208
WIRE 144 224 -64 224
WIRE 304 224 304 160
WIRE 304 224 144 224
WIRE 464 224 464 192
WIRE 464 224 304 224
WIRE 560 224 560 96
WIRE 560 224 464 224
WIRE 944 224 944 176
WIRE 944 224 560 224
WIRE -64 256 -64 224
WIRE 944 256 944 224
FLAG 944 256 0
FLAG -64 256 0
FLAG 1120 -64 0
FLAG 976 64 ADC
FLAG 496 48 Vem
FLAG -336 -64 0
SYMBOL res 288 64 R0
SYMATTR InstName R1
SYMATTR Value 100k
SYMBOL res 112 64 R90
WINDOW 0 0 56 VBottom 2
WINDOW 3 32 56 VTop 2
SYMATTR InstName R5
SYMATTR Value 10k
SYMBOL cap 128 144 R0
SYMATTR InstName C1
SYMATTR Value 100n
SYMBOL res 448 96 R0
SYMATTR InstName R2
SYMATTR Value 50k
SYMBOL cap 608 -96 R0
SYMATTR InstName C4
SYMATTR Value 1µ
SYMBOL res 704 -112 R0
SYMATTR InstName R3
SYMATTR Value 100k
SYMBOL res 880 48 R90
WINDOW 0 0 56 VBottom 2
WINDOW 3 32 56 VTop 2
SYMATTR InstName R6
SYMATTR Value 1k
SYMBOL cap 928 112 R0
SYMATTR InstName C2
SYMATTR Value 100n
SYMBOL OpAmps\\LTC1050 560 0 R0
SYMATTR InstName U1
SYMBOL voltage 1120 -224 R0
WINDOW 123 69 18 Left 2
WINDOW 39 0 0 Left 0
SYMATTR InstName V1
SYMATTR Value 5
SYMBOL voltage -224 96 R0
SYMATTR InstName V2
SYMATTR Value SINE(0 325 50)
SYMBOL cap -64 64 R90
WINDOW 0 0 32 VBottom 2
WINDOW 3 32 32 VTop 2
SYMATTR InstName C3
SYMATTR Value 1p
SYMBOL voltage -336 -192 R0
WINDOW 3 -369 4 Left 2
WINDOW 123 -364 30 Left 2
WINDOW 39 0 0 Left 0
SYMATTR Value PULSE(50n 100n 1 0.1 0.1 2)
SYMATTR Value2 AC 1 0
SYMATTR InstName V3
SYMBOL capteur_graP_A -160 -128 R0
SYMATTR InstName X2
SYMBOL cap 976 -224 R0
SYMATTR InstName C5
SYMATTR Value 100n
TEXT -48 312 Left 2 !;tran 4
TEXT -40 336 Left 2 !.ac dec 100 1 1G
